Version 4
SHEET 1 6216 680
WIRE 3136 -560 3136 -608
WIRE 3152 -560 3136 -560
WIRE 3216 -560 3216 -608
WIRE 3216 -560 3200 -560
WIRE 3856 -480 3856 -528
WIRE 3856 -480 3824 -480
WIRE 3888 -480 3856 -480
WIRE 3200 -464 3200 -560
WIRE 3152 -432 3152 -560
WIRE 3312 -432 3152 -432
WIRE 2976 -416 2944 -416
WIRE 3152 -416 3152 -432
WIRE 3152 -416 3056 -416
WIRE 3152 -400 3152 -416
WIRE 3728 -368 3616 -368
WIRE 3968 -368 3808 -368
WIRE 2656 -352 2512 -352
WIRE 2864 -352 2656 -352
WIRE 2944 -352 2944 -416
WIRE 2944 -352 2864 -352
WIRE 2656 -320 2656 -352
WIRE 2864 -320 2864 -352
WIRE 2944 -304 2944 -352
WIRE 2976 -304 2944 -304
WIRE 3152 -304 3152 -320
WIRE 3152 -304 3056 -304
WIRE 3168 -304 3152 -304
WIRE 3280 -304 3248 -304
WIRE 2464 -272 2320 -272
WIRE 2512 -272 2464 -272
WIRE 2320 -256 2320 -272
WIRE 3424 -240 3328 -240
WIRE 3616 -240 3616 -368
WIRE 3648 -240 3616 -240
WIRE 3968 -240 3968 -368
WIRE 3968 -240 3904 -240
WIRE 3376 -224 3104 -224
WIRE 2656 -208 2656 -256
WIRE 2656 -208 2608 -208
WIRE 2864 -208 2864 -256
WIRE 2864 -208 2656 -208
WIRE 3376 -208 3376 -224
WIRE 3328 -192 3328 -240
WIRE 3344 -192 3328 -192
WIRE 2464 -176 2320 -176
WIRE 2512 -176 2464 -176
WIRE 2656 -176 2656 -208
WIRE 2864 -176 2864 -208
WIRE 3424 -176 3424 -240
WIRE 3424 -176 3408 -176
WIRE 3648 -176 3424 -176
WIRE 3952 -176 3904 -176
WIRE 2944 -160 2944 -304
WIRE 3104 -160 3104 -224
WIRE 3104 -160 2944 -160
WIRE 3312 -160 3312 -432
WIRE 3344 -160 3312 -160
WIRE 3376 -128 3376 -144
WIRE 3376 -128 3232 -128
WIRE 3424 -112 3328 -112
WIRE 3648 -112 3424 -112
WIRE 4224 -112 3904 -112
WIRE 2656 -96 2656 -112
WIRE 2656 -96 2512 -96
WIRE 2864 -96 2864 -112
WIRE 2864 -96 2656 -96
WIRE 3104 -96 3104 -160
WIRE 3376 -96 3104 -96
WIRE 3376 -80 3376 -96
WIRE 2864 -64 2864 -96
WIRE 3232 -64 3232 -128
WIRE 3232 -64 2864 -64
WIRE 3328 -64 3328 -112
WIRE 3344 -64 3328 -64
WIRE 3424 -48 3424 -112
WIRE 3424 -48 3408 -48
WIRE 3648 -48 3600 -48
WIRE 4000 -48 3904 -48
WIRE 3152 -32 3152 -304
WIRE 3344 -32 3152 -32
WIRE 3232 0 3232 -64
WIRE 3376 0 3376 -16
WIRE 3376 0 3232 0
WIRE 3232 80 3232 0
WIRE 3600 80 3600 -48
WIRE 3600 80 3232 80
WIRE 3104 128 3104 -96
WIRE 3952 128 3952 -176
WIRE 3952 128 3104 128
FLAG 2464 -272 J1_1
FLAG 2464 -176 J1_2
FLAG 2608 -208 0
FLAG 3200 -464 0
FLAG 3280 -304 0
FLAG 4000 -48 0
SYMBOL res 2496 -368 R0
SYMATTR InstName R8
SYMATTR Value 51.1
SYMBOL res 2496 -192 R0
SYMATTR InstName R9
SYMATTR Value 51.1
SYMBOL References\\ADR5044 2656 -288 R0
SYMATTR InstName U6
SYMBOL References\\ADR5044 2656 -144 R0
SYMATTR InstName U7
SYMBOL cap 2848 -320 R0
SYMATTR InstName C3
SYMATTR Value 470µF
SYMBOL cap 2848 -176 R0
SYMATTR InstName C4
SYMATTR Value 470µF
SYMBOL OpAmps\\OP07 3376 -240 R0
SYMATTR InstName U3_2
SYMBOL OpAmps\\OP07 3376 -112 R0
SYMATTR InstName U4_2
SYMBOL OpAmps\\LT1167 3776 -144 R0
SYMATTR InstName U10
SYMBOL voltage 2320 -272 R0
WINDOW 123 0 0 Left 0
WINDOW 39 0 0 Left 0
SYMATTR InstName V2
SYMATTR Value 10
SYMBOL res 3840 -624 R0
SYMATTR InstName Ra1
SYMATTR Value 1
SYMBOL res 3984 -496 R90
WINDOW 0 0 56 VBottom 2
WINDOW 3 32 56 VTop 2
SYMATTR InstName Rc1
SYMATTR Value 1
SYMBOL res 3840 -496 R90
WINDOW 0 0 56 VBottom 2
WINDOW 3 32 56 VTop 2
SYMATTR InstName Rb1
SYMATTR Value 1
SYMBOL res 3072 -432 R90
WINDOW 0 0 56 VBottom 2
WINDOW 3 32 56 VTop 2
SYMATTR InstName R4
SYMATTR Value 4.42K
SYMBOL res 3072 -320 R90
WINDOW 0 0 56 VBottom 2
WINDOW 3 32 56 VTop 2
SYMATTR InstName R3
SYMATTR Value 5.36K
SYMBOL res 3168 -304 R180
WINDOW 0 36 76 Left 2
WINDOW 3 36 40 Left 2
SYMATTR InstName R5
SYMATTR Value 2.87K
SYMBOL res 3264 -320 R90
WINDOW 0 0 56 VBottom 2
WINDOW 3 32 56 VTop 2
SYMATTR InstName R6
SYMATTR Value 4.87K
SYMBOL res 3232 -624 R90
WINDOW 0 0 56 VBottom 2
WINDOW 3 32 56 VTop 2
SYMATTR InstName R_dat
SYMATTR Value 4K
SYMBOL res 3824 -384 R90
WINDOW 0 0 56 VBottom 2
WINDOW 3 32 56 VTop 2
SYMATTR InstName R1
SYMATTR Value 46.4K
TEXT 2288 624 Left 2 !.tran 0 100 1
